<routes>
        <vType id="type1" lcStrategic="100" lcKeepRight="100" lcSpeedGain="100" lcCooperative="1" lcSublane="100" />
    <route id="rse4235" edges="619523290#0 619523290#1 619523288 61645695 628341438#0 628341438#1" />
    <route id="rnw4235" edges="-628341438#1 -628341438#0 gneE6 619523287#0.17 619523287#1" />
    <route id="rnorth4219" edges="620377515  122089525 122089525.34 620377496 620377502#0 620377502#1 620377501#0" />
    <route id="rsouth4219" edges="620377506 620377506.61 28597169 620377494 547625725" />
    <route id="rsouth4220" edges="gneE10.441 gneE73 gneE79 gneE41" />
    <route id="rnorth4221" edges="-620463733 -620377511 -112543664 28573008 547793367 620377512 28573048 669665014 669665015#1 28594060#0 28594060#1 28594060#2 28594060#3 28594060#4" />
    <route id="rsouth4221" edges="-28594060#4 -28594060#3 -28594060#2 -28594060#1 -28594060#0 669665013 669665011 7635630#0 7635630#1 207149704#0 207149704#1 112543664 620377510 620463733" />
    <route id="rne4221" edges="-620463733 -620377511 -112543664 28573008 547793367 620377512 7637388#0 7637388#1 28573015#0 28573015#1 28573015#2 28573015#3 28573015#4 28573015#5 28573015#6" />
    <route id="rse4221" edges="-28594060#4 -28594060#3 -28594060#2 -28594060#1 -28594060#0 669665013 669665011 7635630#0 28572986 7637388#1 28573015#0 28573015#1 28573015#2 28573015#3 28573015#4 28573015#5 28573015#6" />
    <route id="rnw4221" edges="-28573015#6 -28573015#5 -28573015#4 -28573015#3 -28573015#2 -28573015#1 -28573015#0 28573025 28573025.46 28573025.65 28573048 669665014 669665015#1 28594060#0 28594060#1 28594060#2 28594060#3 28594060#4" />
    <route id="r4235e4219n" edges="619523290#0 619523290#1 619523288 619526570#0 619526570#1 620377514#1 619526569#1 619526568 619526567 gneE1 gneE1.31 620377502#0 620377502#1 620377501#0" />
    <route id="r4235n4219n" edges="-628341438#1 -628341438#0 -61645695 619526570#0 619526570#1 620377514#1 619526569#1 619526568 619526567 gneE1 gneE1.31 620377502#0 620377502#1 620377501#0" />
    <route id="r4235e4219s" edges="619523290#0 619523290#1 619523288 619526570#0 619526570#1 620377514#1 619526569#1 619526568 619526567 619526566 28597169 620377494 547625725" />
    <route id="r4235n4219s" edges="-628341438#1 -628341438#0 -61645695 619526570#0 619526570#1 620377514#1 619526569#1 619526568 619526567 619526566 28597169 620377494 547625725" />
    <route id="r4235e4220n" edges="619523290#0 619523290#1 619523288 619526570#0 619526570#1 620377514#1 619526569#1 619526568 619526567 619526566 122089528#1 620377517 gneE3 gneE44" />
    <route id="r4235n4220n" edges="-628341438#1 -628341438#0 -61645695 619526570#0 619526570#1 620377514#1 619526569#1 619526568 619526567 619526566 122089528#1 620377517 gneE3 gneE44" />
    <route id="r4235e4220s" edges="619523290#0 619523290#1 619523288 619526570#0 619526570#1 620377514#1 619526569#1 619526568 619526567 619526566 122089528#1 620377517 gneE74 gneE79 gneE41" />
    <route id="r4235n4220s" edges="-628341438#1 -628341438#0 -61645695 619526570#0 619526570#1 620377514#1 619526569#1 619526568 619526567 619526566 122089528#1 620377517 gneE74 gneE79 gneE41" />
    <route id="r4219s4220n" edges="620377506 gneE2 620377517 gneE3 gneE44" />
    <route id="r4219s4220s" edges="620377506 gneE2 620377517 gneE74 gneE79 gneE41" />
    <route id="r4219n4220n" edges="620377515  122089525 122089525.34 122089528#1 620377517 gneE3 gneE44" />
    <route id="r4219n4220s" edges="620377515  122089525 122089525.34 122089528#1 620377517 gneE74 gneE79 gneE41" />
    <route id="r4235e4221n" edges="619523290#0 619523290#1 619523288 619526570#0 619526570#1 620377514#1 619526569#1 619526568 619526567 619526566 122089528#1 620377517 gneE74 gneE72 gneE80 gneE81 gneE83 669665014 669665015#1 28594060#0 28594060#1 28594060#2 28594060#3 28594060#4" />
    <route id="r4235n4221n" edges="-628341438#1 -628341438#0 -61645695 619526570#0 619526570#1 620377514#1 619526569#1 619526568 619526567 619526566 122089528#1 620377517 gneE74 gneE72 gneE80 gneE81 gneE83 669665014 669665015#1 28594060#0 28594060#1 28594060#2 28594060#3 28594060#4" />
    <route id="r4235e4221s" edges="619523290#0 619523290#1 619523288 619526570#0 619526570#1 620377514#1 619526569#1 619526568 619526567 619526566 122089528#1 620377517 gneE74 gneE72 gneE80 gneE81 gneE82 207149704#0 207149704#1 112543664 620377510 620463733" />
    <route id="r4235n4221s" edges="-628341438#1 -628341438#0 -61645695 619526570#0 619526570#1 620377514#1 619526569#1 619526568 619526567 619526566 122089528#1 620377517 gneE74 gneE72 gneE80 gneE81 gneE82 207149704#0 207149704#1 112543664 620377510 620463733" />
    <route id="r4219s4221n" edges="620377506 gneE2 620377517 gneE74 gneE72 gneE80 gneE81 gneE83 669665014 669665015#1 28594060#0 28594060#1 28594060#2 28594060#3 28594060#4" />
    <route id="r4219s4221s" edges="620377506 gneE2 620377517 gneE74 gneE72 gneE80 gneE81 gneE82 207149704#0 207149704#1 112543664 620377510 620463733" />
    <route id="r4219n4221n" edges="620377515  122089525 122089525.34 122089528#1 620377517 gneE74 gneE72 gneE80 gneE81 gneE83 669665014 669665015#1 28594060#0 28594060#1 28594060#2 28594060#3 28594060#4" />
    <route id="r4219n4221s" edges="620377515  122089525 122089525.34 122089528#1 620377517 gneE74 gneE72 gneE80 gneE81 gneE82 207149704#0 207149704#1 112543664 620377510 620463733" />
    <route id="r4220s4221n" edges="gneE10.441 28641508 gneE80 gneE81 gneE83 669665014 669665015#1 28594060#0 28594060#1 28594060#2 28594060#3 28594060#4" />
    <route id="r4220s4221s" edges="gneE10.441 28641508 gneE80 gneE81 gneE82 207149704#0 207149704#1 112543664 620377510 620463733" />
    <route id="r4235e4221e" edges="619523290#0 619523290#1 619523288 619526570#0 619526570#1 620377514#1 619526569#1 619526568 619526567 619526566 122089528#1 620377517 gneE74 gneE72 gneE80 gneE81 gneE82 7637388#0 7637388#1 28573015#0 28573015#1 28573015#2 28573015#3 28573015#4 28573015#5 28573015#6" />
    <route id="r4235n4221e" edges="-628341438#1 -628341438#0 -61645695 619526570#0 619526570#1 620377514#1 619526569#1 619526568 619526567 619526566 122089528#1 620377517 gneE74 gneE72 gneE80 gneE81 gneE82 7637388#0 7637388#1 28573015#0 28573015#1 28573015#2 28573015#3 28573015#4 28573015#5 28573015#6" />
    <route id="r4219s4221e" edges="620377506 gneE2 620377517  gneE74 gneE72 gneE80 gneE81 gneE82 7637388#0 7637388#1 28573015#0 28573015#1 28573015#2 28573015#3 28573015#4 28573015#5 28573015#6" />
    <route id="r4219n4221e" edges="620377515  122089525 122089525.34 122089528#1 620377517 gneE74 gneE72 gneE80 gneE81 gneE82 7637388#0 7637388#1 28573015#0 28573015#1 28573015#2 28573015#3 28573015#4 28573015#5 28573015#6" />
    <route id="r4220s4221e" edges="gneE10.441 28641508 gneE80 gneE81 gneE82 7637388#0 7637388#1 28573015#0 28573015#1 28573015#2 28573015#3 28573015#4 28573015#5 28573015#6" />
    <route id="r4221s4220n" edges="-28594060#4 -28594060#3 -28594060#2 -28594060#1 -28594060#0 669665013 669665011 7635630#0 7635630#1 624439627 547793365 158617319 gneE77 gneE76 gneE44" />
    <route id="r4221n4220n" edges="-620463733 -620377511 -112543664 28573008 28573013 547793365 158617319 gneE77 gneE76 gneE44" />
    <route id="r4221w4220n" edges="-28573015#6 -28573015#5 -28573015#4 -28573015#3 -28573015#2 -28573015#1 -28573015#0 28573025 28573025.46 28573025.65 624439627 547793365 158617319 gneE77 gneE76 gneE44" />
    <route id="r4221s4220s" edges="-28594060#4 -28594060#3 -28594060#2 -28594060#1 -28594060#0 669665013 669665011 7635630#0 7635630#1 624439627 547793365 158617319 620377513 gneE41" />
    <route id="r4221n4220s" edges="-620463733 -620377511 -112543664 28573008 28573013 547793365 158617319 620377513 gneE41" />
    <route id="r4221w4220s" edges="-28573015#6 -28573015#5 -28573015#4 -28573015#3 -28573015#2 -28573015#1 -28573015#0 28573025 28573025.46 28573025.65 624439627 547793365 158617319 620377513 gneE41" />
    <route id="r4220s4219n" edges="gneE10.441 gneE73 gneE75 619526565 547625727 620377496 620377502#0 620377502#1 620377501#0" />
    <route id="r4220n4219n" edges="gneE47 gneE47.434 gneE78 gneE75 619526565 547625727 620377496 620377502#0 620377502#1 620377501#0" />
    <route id="r4221s4219n" edges="-28594060#4 -28594060#3 -28594060#2 -28594060#1 -28594060#0 669665013 669665011 7635630#0 7635630#1 624439627 547793365 158617319 gneE77 gneE75 619526565 547625727 620377496 620377502#0 620377502#1 620377501#0" />
    <route id="r4221n4219n" edges="-620463733 -620377511 -112543664 28573008 28573013 547793365 158617319 gneE77 gneE75 619526565 547625727 620377496 620377502#0 620377502#1 620377501#0" />
    <route id="r4221w4219n" edges="-28573015#6 -28573015#5 -28573015#4 -28573015#3 -28573015#2 -28573015#1 -28573015#0 28573025 28573025.46 28573025.65 624439627 547793365 158617319 gneE77 gneE75 619526565 547625727 620377496 620377502#0 620377502#1 620377501#0" />
    <route id="r4220s4219s" edges="gneE10.441 gneE73 gneE75 619526565 28592678 620377494 547625725" />
    <route id="r4220n4219s" edges="gneE47 gneE47.434 gneE78 gneE75 619526565 28592678 620377494 547625725" />
    <route id="r4221s4219s" edges="-28594060#4 -28594060#3 -28594060#2 -28594060#1 -28594060#0 669665013 669665011 7635630#0 7635630#1 624439627 547793365 158617319 gneE77 gneE75 619526565 28592678 620377494 547625725" />
    <route id="r4221n4219s" edges="-620463733 -620377511 -112543664 28573008 28573013 547793365 158617319 gneE77 gneE75 619526565 28592678 620377494 547625725" />
    <route id="r4221w4219s" edges="-28573015#6 -28573015#5 -28573015#4 -28573015#3 -28573015#2 -28573015#1 -28573015#0 28573025 28573025.46 28573025.65 624439627 547793365 158617319 gneE77 gneE75 619526565 28592678 620377494 547625725" />
    <route id="r4219s4235s" edges="620377506 620377506.61 122089526 122089583#0 122089583#1 122089583#1-AddedOffRampEdge 620377490 628341438#0 628341438#1" />
    <route id="r4219n4235s" edges="620377515 28592666 122089583#0 122089583#1 122089583#1-AddedOffRampEdge 620377490 628341438#0 628341438#1" />
    <route id="r4221s4235s" edges="-28594060#4 -28594060#3 -28594060#2 -28594060#1 -28594060#0 669665013 669665011 7635630#0 7635630#1 624439627 547793365 158617319 gneE77 gneE75 619526565 547625727 122089526 122089583#0 122089583#1 122089583#1-AddedOffRampEdge 620377490 628341438#0 628341438#1" />
    <route id="r4221n4235s" edges="-620463733 -620377511 -112543664 28573008 28573013 547793365 158617319 gneE77 gneE75 619526565 547625727 122089526 122089583#0 122089583#1 122089583#1-AddedOffRampEdge 620377490 628341438#0 628341438#1" />
    <route id="r4221w4235s" edges="-28573015#6 -28573015#5 -28573015#4 -28573015#3 -28573015#2 -28573015#1 -28573015#0 28573025 28573025.46 28573025.65 624439627 547793365 158617319 gneE77 gneE75 619526565 547625727 122089526 122089583#0 122089583#1 122089583#1-AddedOffRampEdge 620377490 628341438#0 628341438#1" />
    <route id="r4220s4235s" edges="gneE10.441 gneE73 gneE75 619526565 547625727 122089526 122089583#0 122089583#1 122089583#1-AddedOffRampEdge 620377490 628341438#0 628341438#1" />
    <route id="r4220n4235s" edges="gneE47 gneE47.434 gneE78 gneE75 619526565 547625727 122089526 122089583#0 122089583#1 122089583#1-AddedOffRampEdge 620377490 628341438#0 628341438#1" />
    <route id="r4219s4235w" edges="620377506 620377506.61 122089526 122089583#0 122089583#1 122089583#1-AddedOffRampEdge 619523286 619523287#0 619523287#0.17 619523287#1" />
    <route id="r4219n4235w" edges="620377515 28592666 122089583#0 122089583#1 122089583#1-AddedOffRampEdge 619523286 619523287#0 619523287#0.17 619523287#1" />
    <route id="r4221s4235w" edges="-28594060#4 -28594060#3 -28594060#2 -28594060#1 -28594060#0 669665013 669665011 7635630#0 7635630#1 624439627 547793365 158617319 gneE77 gneE75 619526565 547625727 122089526 122089583#0 122089583#1 122089583#1-AddedOffRampEdge 619523286 619523287#0 619523287#0.17 619523287#1" />
    <route id="r4221n4235w" edges="-620463733 -620377511 -112543664 28573008 28573013 547793365 158617319 gneE77 gneE75 619526565 547625727 122089526 122089583#0 122089583#1 122089583#1-AddedOffRampEdge 619523286 619523287#0 619523287#0.17 619523287#1" />
    <route id="r4221w4235w" edges="-28573015#6 -28573015#5 -28573015#4 -28573015#3 -28573015#2 -28573015#1 -28573015#0 28573025 28573025.46 28573025.65 624439627 547793365 158617319 gneE77 gneE75 619526565 547625727 122089526 122089583#0 122089583#1 122089583#1-AddedOffRampEdge 619523286 619523287#0 619523287#0.17 619523287#1" />
    <route id="r4220s4235w" edges="gneE10.441 gneE73 gneE75 619526565 547625727 122089526 122089583#0 122089583#1 122089583#1-AddedOffRampEdge 619523286 619523287#0 619523287#0.17 619523287#1" />
    <route id="r4220n4235w" edges="gneE47 gneE47.434 gneE78 gneE75 619526565 547625727 122089526 122089583#0 122089583#1 122089583#1-AddedOffRampEdge 619523286 619523287#0 619523287#0.17 619523287#1" />
    <vehicle id="nw4235_0" type="type1" route="rnw4235" depart="0" />
    <vehicle id="4235e4219n_1" type="type1" route="r4235e4219n" depart="0" />
    <vehicle id="4235e4219s_2" type="type1" route="r4235e4219s" depart="0" />
    <vehicle id="se4235_3" type="type1" route="rse4235" depart="1" />
    <vehicle id="4235e4221n_4" type="type1" route="r4235e4221n" depart="1" />
    <vehicle id="se4235_5" type="type1" route="rse4235" depart="2" />
    <vehicle id="north4219_6" type="type1" route="rnorth4219" depart="2" />
    <vehicle id="north4221_7" type="type1" route="rnorth4221" depart="2" />
    <vehicle id="north4219_8" type="type1" route="rnorth4219" depart="3" />
    <vehicle id="south4221_9" type="type1" route="rsouth4221" depart="3" />
    <vehicle id="nw4235_10" type="type1" route="rnw4235" depart="4" />
    <vehicle id="4235e4219n_11" type="type1" route="r4235e4219n" depart="4" />
    <vehicle id="4235e4221n_12" type="type1" route="r4235e4221n" depart="4" />
    <vehicle id="4235n4221e_13" type="type1" route="r4235n4221e" depart="5" />
    <vehicle id="south4220_14" type="type1" route="rsouth4220" depart="6" />
    <vehicle id="se4235_15" type="type1" route="rse4235" depart="7" />
    <vehicle id="4235e4219s_16" type="type1" route="r4235e4219s" depart="7" />
    <vehicle id="4235e4221e_17" type="type1" route="r4235e4221e" depart="7" />
    <vehicle id="south4219_18" type="type1" route="rsouth4219" depart="8" />
    <vehicle id="north4221_19" type="type1" route="rnorth4221" depart="9" />
    <vehicle id="4219s4221e_20" type="type1" route="r4219s4221e" depart="9" />
    <vehicle id="4235e4220n_21" type="type1" route="r4235e4220n" depart="10" />
    <vehicle id="se4235_22" type="type1" route="rse4235" depart="11" />
    <vehicle id="4235e4221n_23" type="type1" route="r4235e4221n" depart="12" />
    <vehicle id="north4219_24" type="type1" route="rnorth4219" depart="13" />
    <vehicle id="north4221_25" type="type1" route="rnorth4221" depart="13" />
    <vehicle id="4235e4219n_26" type="type1" route="r4235e4219n" depart="13" />
    <vehicle id="4235n4219n_27" type="type1" route="r4235n4219n" depart="13" />
    <vehicle id="north4219_28" type="type1" route="rnorth4219" depart="15" />
    <vehicle id="4235e4219n_29" type="type1" route="r4235e4219n" depart="15" />
    <vehicle id="4235e4221n_30" type="type1" route="r4235e4221n" depart="16" />
    <vehicle id="4219n4235w_31" type="type1" route="r4219n4235w" depart="16" />
    <vehicle id="se4235_32" type="type1" route="rse4235" depart="17" />
    <vehicle id="4235e4219n_33" type="type1" route="r4235e4219n" depart="17" />
    <vehicle id="4235e4221e_34" type="type1" route="r4235e4221e" depart="17" />
    <vehicle id="4219n4221e_35" type="type1" route="r4219n4221e" depart="17" />
    <vehicle id="4220s4219n_36" type="type1" route="r4220s4219n" depart="17" />
    <vehicle id="4221n4219n_37" type="type1" route="r4221n4219n" depart="17" />
    <vehicle id="north4219_38" type="type1" route="rnorth4219" depart="18" />
    <vehicle id="4235e4219n_39" type="type1" route="r4235e4219n" depart="19" />
    <vehicle id="4221n4219s_40" type="type1" route="r4221n4219s" depart="20" />
    <vehicle id="nw4235_41" type="type1" route="rnw4235" depart="21" />
    <vehicle id="4235e4219n_42" type="type1" route="r4235e4219n" depart="21" />
    <vehicle id="4235e4219s_43" type="type1" route="r4235e4219s" depart="21" />
    <vehicle id="4235e4221n_44" type="type1" route="r4235e4221n" depart="21" />
    <vehicle id="4220s4219n_45" type="type1" route="r4220s4219n" depart="21" />
    <vehicle id="south4219_46" type="type1" route="rsouth4219" depart="22" />
    <vehicle id="4235e4219n_47" type="type1" route="r4235e4219n" depart="22" />
    <vehicle id="4235e4221n_48" type="type1" route="r4235e4221n" depart="22" />
    <vehicle id="4235e4221e_49" type="type1" route="r4235e4221e" depart="22" />
    <vehicle id="north4219_50" type="type1" route="rnorth4219" depart="23" />
    <vehicle id="se4235_51" type="type1" route="rse4235" depart="24" />
    <vehicle id="nw4235_52" type="type1" route="rnw4235" depart="24" />
    <vehicle id="4235e4219n_53" type="type1" route="r4235e4219n" depart="24" />
    <vehicle id="north4219_54" type="type1" route="rnorth4219" depart="25" />
    <vehicle id="south4220_55" type="type1" route="rsouth4220" depart="25" />
    <vehicle id="4235e4219n_56" type="type1" route="r4235e4219n" depart="25" />
    <vehicle id="4221n4219n_57" type="type1" route="r4221n4219n" depart="25" />
    <vehicle id="4219s4235w_58" type="type1" route="r4219s4235w" depart="25" />
    <vehicle id="4221n4235w_59" type="type1" route="r4221n4235w" depart="25" />
    <vehicle id="north4221_60" type="type1" route="rnorth4221" depart="26" />
    <vehicle id="4220s4235w_61" type="type1" route="r4220s4235w" depart="26" />
    <vehicle id="north4221_62" type="type1" route="rnorth4221" depart="27" />
    <vehicle id="4235e4219n_63" type="type1" route="r4235e4219n" depart="27" />
    <vehicle id="4220s4235w_64" type="type1" route="r4220s4235w" depart="27" />
    <vehicle id="nw4235_65" type="type1" route="rnw4235" depart="28" />
    <vehicle id="north4219_66" type="type1" route="rnorth4219" depart="28" />
    <vehicle id="4235e4221e_67" type="type1" route="r4235e4221e" depart="28" />
    <vehicle id="north4221_68" type="type1" route="rnorth4221" depart="31" />
    <vehicle id="4219n4221e_69" type="type1" route="r4219n4221e" depart="31" />
    <vehicle id="4220s4219n_70" type="type1" route="r4220s4219n" depart="31" />
    <vehicle id="4221s4219n_71" type="type1" route="r4221s4219n" depart="31" />
    <vehicle id="north4221_72" type="type1" route="rnorth4221" depart="32" />
    <vehicle id="4235e4219n_73" type="type1" route="r4235e4219n" depart="32" />
    <vehicle id="south4219_74" type="type1" route="rsouth4219" depart="33" />
    <vehicle id="4235e4219n_75" type="type1" route="r4235e4219n" depart="33" />
    <vehicle id="south4219_76" type="type1" route="rsouth4219" depart="35" />
    <vehicle id="north4219_77" type="type1" route="rnorth4219" depart="36" />
    <vehicle id="4235e4219n_78" type="type1" route="r4235e4219n" depart="36" />
    <vehicle id="4235e4219s_79" type="type1" route="r4235e4219s" depart="36" />
    <vehicle id="4235e4220n_80" type="type1" route="r4235e4220n" depart="36" />
    <vehicle id="4235e4219n_81" type="type1" route="r4235e4219n" depart="37" />
    <vehicle id="4221s4220n_82" type="type1" route="r4221s4220n" depart="37" />
    <vehicle id="4221w4235w_83" type="type1" route="r4221w4235w" depart="37" />
    <vehicle id="south4219_84" type="type1" route="rsouth4219" depart="38" />
    <vehicle id="north4221_85" type="type1" route="rnorth4221" depart="38" />
    <vehicle id="4235e4219n_86" type="type1" route="r4235e4219n" depart="38" />
    <vehicle id="4235e4221n_87" type="type1" route="r4235e4221n" depart="38" />
    <vehicle id="4221n4220s_88" type="type1" route="r4221n4220s" depart="38" />
    <vehicle id="north4221_89" type="type1" route="rnorth4221" depart="39" />
    <vehicle id="4235e4221s_90" type="type1" route="r4235e4221s" depart="39" />
    <vehicle id="north4219_91" type="type1" route="rnorth4219" depart="40" />
    <vehicle id="4235e4219n_92" type="type1" route="r4235e4219n" depart="40" />
    <vehicle id="nw4235_93" type="type1" route="rnw4235" depart="41" />
    <vehicle id="se4221_94" type="type1" route="rse4221" depart="41" />
    <vehicle id="4219s4235w_95" type="type1" route="r4219s4235w" depart="41" />
    <vehicle id="south4219_96" type="type1" route="rsouth4219" depart="42" />
    <vehicle id="4235e4219n_97" type="type1" route="r4235e4219n" depart="42" />
    <vehicle id="4235n4219n_98" type="type1" route="r4235n4219n" depart="42" />
    <vehicle id="4235e4221n_99" type="type1" route="r4235e4221n" depart="42" />
    <vehicle id="4220s4219n_100" type="type1" route="r4220s4219n" depart="42" />
    <vehicle id="south4220_101" type="type1" route="rsouth4220" depart="43" />
    <vehicle id="4235e4219n_102" type="type1" route="r4235e4219n" depart="43" />
    <vehicle id="4220s4219n_103" type="type1" route="r4220s4219n" depart="43" />
    <vehicle id="north4219_104" type="type1" route="rnorth4219" depart="44" />
    <vehicle id="4235e4219n_105" type="type1" route="r4235e4219n" depart="44" />
    <vehicle id="4235e4221e_106" type="type1" route="r4235e4221e" depart="44" />
    <vehicle id="4221w4220s_107" type="type1" route="r4221w4220s" depart="44" />
    <vehicle id="se4235_108" type="type1" route="rse4235" depart="45" />
    <vehicle id="south4220_109" type="type1" route="rsouth4220" depart="45" />
    <vehicle id="4235e4219n_110" type="type1" route="r4235e4219n" depart="45" />
    <vehicle id="north4221_111" type="type1" route="rnorth4221" depart="46" />
    <vehicle id="4221s4235w_112" type="type1" route="r4221s4235w" depart="47" />
    <vehicle id="4220s4221n_113" type="type1" route="r4220s4221n" depart="49" />
    <vehicle id="4220s4219n_114" type="type1" route="r4220s4219n" depart="49" />
    <vehicle id="4221n4219n_115" type="type1" route="r4221n4219n" depart="49" />
    <vehicle id="south4220_116" type="type1" route="rsouth4220" depart="51" />
    <vehicle id="north4221_117" type="type1" route="rnorth4221" depart="51" />
    <vehicle id="south4221_118" type="type1" route="rsouth4221" depart="51" />
    <vehicle id="4235e4221e_119" type="type1" route="r4235e4221e" depart="51" />
    <vehicle id="4235n4221e_120" type="type1" route="r4235n4221e" depart="52" />
    <vehicle id="4220s4219n_121" type="type1" route="r4220s4219n" depart="52" />
    <vehicle id="south4221_122" type="type1" route="rsouth4221" depart="54" />
    <vehicle id="nw4235_123" type="type1" route="rnw4235" depart="55" />
    <vehicle id="4235e4219n_124" type="type1" route="r4235e4219n" depart="55" />
    <vehicle id="4235e4219s_125" type="type1" route="r4235e4219s" depart="55" />
    <vehicle id="south4220_126" type="type1" route="rsouth4220" depart="56" />
    <vehicle id="north4221_127" type="type1" route="rnorth4221" depart="56" />
    <vehicle id="4235e4219n_128" type="type1" route="r4235e4219n" depart="56" />
    <vehicle id="4235e4221n_129" type="type1" route="r4235e4221n" depart="56" />
    <vehicle id="south4221_130" type="type1" route="rsouth4221" depart="57" />
    <vehicle id="se4235_131" type="type1" route="rse4235" depart="59" />
    <vehicle id="nw4235_132" type="type1" route="rnw4235" depart="59" />
    <vehicle id="south4219_133" type="type1" route="rsouth4219" depart="59" />
    <vehicle id="north4221_134" type="type1" route="rnorth4221" depart="59" />
    <vehicle id="se4235_135" type="type1" route="rse4235" depart="60" />
    <vehicle id="4221n4219s_136" type="type1" route="r4221n4219s" depart="60" />
    <vehicle id="4235e4219n_137" type="type1" route="r4235e4219n" depart="61" />
    <vehicle id="4235e4219s_138" type="type1" route="r4235e4219s" depart="61" />
    <vehicle id="4235e4220n_139" type="type1" route="r4235e4220n" depart="61" />
    <vehicle id="4220s4235w_140" type="type1" route="r4220s4235w" depart="61" />
    <vehicle id="south4220_141" type="type1" route="rsouth4220" depart="62" />
    <vehicle id="north4221_142" type="type1" route="rnorth4221" depart="63" />
    <vehicle id="4235e4219n_143" type="type1" route="r4235e4219n" depart="63" />
    <vehicle id="4235e4219n_144" type="type1" route="r4235e4219n" depart="64" />
    <vehicle id="4235e4221n_145" type="type1" route="r4235e4221n" depart="64" />
    <vehicle id="4221s4235w_146" type="type1" route="r4221s4235w" depart="64" />
    <vehicle id="se4235_147" type="type1" route="rse4235" depart="65" />
    <vehicle id="south4220_148" type="type1" route="rsouth4220" depart="65" />
    <vehicle id="4220s4221e_149" type="type1" route="r4220s4221e" depart="65" />
    <vehicle id="south4219_150" type="type1" route="rsouth4219" depart="66" />
    <vehicle id="4235e4219n_151" type="type1" route="r4235e4219n" depart="66" />
    <vehicle id="south4219_152" type="type1" route="rsouth4219" depart="67" />
    <vehicle id="se4221_153" type="type1" route="rse4221" depart="67" />
    <vehicle id="4235e4219s_154" type="type1" route="r4235e4219s" depart="67" />
    <vehicle id="4220s4219n_155" type="type1" route="r4220s4219n" depart="67" />
    <vehicle id="south4219_156" type="type1" route="rsouth4219" depart="70" />
    <vehicle id="south4220_157" type="type1" route="rsouth4220" depart="70" />
    <vehicle id="4235e4219n_158" type="type1" route="r4235e4219n" depart="70" />
    <vehicle id="4221s4220s_159" type="type1" route="r4221s4220s" depart="70" />
    <vehicle id="4221n4219n_160" type="type1" route="r4221n4219n" depart="70" />
    <vehicle id="4219s4235w_161" type="type1" route="r4219s4235w" depart="70" />
    <vehicle id="4235e4219n_162" type="type1" route="r4235e4219n" depart="71" />
    <vehicle id="4235e4219n_163" type="type1" route="r4235e4219n" depart="72" />
    <vehicle id="4235e4219s_164" type="type1" route="r4235e4219s" depart="72" />
    <vehicle id="4221n4219n_165" type="type1" route="r4221n4219n" depart="73" />
    <vehicle id="nw4235_166" type="type1" route="rnw4235" depart="74" />
    <vehicle id="4221n4219s_167" type="type1" route="r4221n4219s" depart="74" />
    <vehicle id="north4219_168" type="type1" route="rnorth4219" depart="75" />
    <vehicle id="4221n4219n_169" type="type1" route="r4221n4219n" depart="75" />
    <vehicle id="north4221_170" type="type1" route="rnorth4221" depart="76" />
    <vehicle id="4235e4219n_171" type="type1" route="r4235e4219n" depart="76" />
    <vehicle id="north4219_172" type="type1" route="rnorth4219" depart="78" />
    <vehicle id="south4219_173" type="type1" route="rsouth4219" depart="78" />
    <vehicle id="4235e4219n_174" type="type1" route="r4235e4219n" depart="78" />
    <vehicle id="south4220_175" type="type1" route="rsouth4220" depart="81" />
    <vehicle id="north4221_176" type="type1" route="rnorth4221" depart="81" />
    <vehicle id="4235e4221e_177" type="type1" route="r4235e4221e" depart="81" />
    <vehicle id="south4221_178" type="type1" route="rsouth4221" depart="82" />
    <vehicle id="4235e4221e_179" type="type1" route="r4235e4221e" depart="82" />
    <vehicle id="4219s4235w_180" type="type1" route="r4219s4235w" depart="82" />
    <vehicle id="north4219_181" type="type1" route="rnorth4219" depart="83" />
    <vehicle id="4221n4220s_182" type="type1" route="r4221n4220s" depart="83" />
    <vehicle id="4221n4235w_183" type="type1" route="r4221n4235w" depart="83" />
    <vehicle id="se4235_184" type="type1" route="rse4235" depart="84" />
    <vehicle id="4235e4221n_185" type="type1" route="r4235e4221n" depart="84" />
    <vehicle id="south4220_186" type="type1" route="rsouth4220" depart="85" />
    <vehicle id="4235e4219n_187" type="type1" route="r4235e4219n" depart="85" />
    <vehicle id="4235e4221n_188" type="type1" route="r4235e4221n" depart="85" />
    <vehicle id="nw4235_189" type="type1" route="rnw4235" depart="86" />
    <vehicle id="north4221_190" type="type1" route="rnorth4221" depart="86" />
    <vehicle id="4235e4221e_191" type="type1" route="r4235e4221e" depart="86" />
    <vehicle id="4235e4219n_192" type="type1" route="r4235e4219n" depart="87" />
    <vehicle id="south4221_193" type="type1" route="rsouth4221" depart="88" />
    <vehicle id="4235e4219n_194" type="type1" route="r4235e4219n" depart="88" />
    <vehicle id="south4219_195" type="type1" route="rsouth4219" depart="89" />
    <vehicle id="south4220_196" type="type1" route="rsouth4220" depart="89" />
    <vehicle id="north4221_197" type="type1" route="rnorth4221" depart="89" />
    <vehicle id="4235e4219n_198" type="type1" route="r4235e4219n" depart="90" />
    <vehicle id="4235e4221n_199" type="type1" route="r4235e4221n" depart="90" />
    <vehicle id="4220s4219n_200" type="type1" route="r4220s4219n" depart="90" />
    <vehicle id="south4220_201" type="type1" route="rsouth4220" depart="91" />
    <vehicle id="north4221_202" type="type1" route="rnorth4221" depart="91" />
    <vehicle id="4235e4221n_203" type="type1" route="r4235e4221n" depart="92" />
    <vehicle id="se4235_204" type="type1" route="rse4235" depart="93" />
    <vehicle id="south4220_205" type="type1" route="rsouth4220" depart="93" />
    <vehicle id="north4221_206" type="type1" route="rnorth4221" depart="94" />
    <vehicle id="south4221_207" type="type1" route="rsouth4221" depart="94" />
    <vehicle id="4235e4219n_208" type="type1" route="r4235e4219n" depart="94" />
    <vehicle id="north4219_209" type="type1" route="rnorth4219" depart="95" />
    <vehicle id="south4219_210" type="type1" route="rsouth4219" depart="96" />
    <vehicle id="4235e4221n_211" type="type1" route="r4235e4221n" depart="96" />
    <vehicle id="4220s4221n_212" type="type1" route="r4220s4221n" depart="97" />
    <vehicle id="se4235_213" type="type1" route="rse4235" depart="98" />
    <vehicle id="4235e4219n_214" type="type1" route="r4235e4219n" depart="98" />
    <vehicle id="nw4235_215" type="type1" route="rnw4235" depart="99" />
    <vehicle id="4235e4219n_216" type="type1" route="r4235e4219n" depart="99" />